Circuit: * C:\Users\scott\Documents\GitHub\AVR-projects\ATMega328 2019-07-05 USB counter\LTSpice\Draft1.asc

Direct Newton iteration for .op point succeeded.

Date: Tue Jul 09 20:56:04 2019
Total elapsed time: 1.568 seconds.

tnom = 27
temp = 27
method = modified trap
totiter = 1015857
traniter = 1015851
tranpoints = 391968
accept = 246698
rejected = 145270
matrix size = 17
fillins = 2
solver = Normal
Matrix Compiler1: 1.36 KB object code size  0.3/0.2/[0.2]
Matrix Compiler2: off  [0.1]/0.2/0.1

