Circuit: * C:\Users\scott\Documents\GitHub\AVR-projects\ATMega328 2019-07-05 USB counter\LTSpice\Draft1.asc

Direct Newton iteration for .op point succeeded.

Date: Mon Jul 08 21:16:17 2019
Total elapsed time: 1.266 seconds.

tnom = 27
temp = 27
method = modified trap
totiter = 870072
traniter = 870067
tranpoints = 350064
accept = 240074
rejected = 109990
matrix size = 14
fillins = 2
solver = Normal
Matrix Compiler1: 1002 bytes object code size  0.3/0.1/[0.1]
Matrix Compiler2: 1.14 KB object code size  0.1/0.1/[0.1]

